Circuit: * C:\users\martin\Desktop\Brain-Computer-Interface\Draft1.asc

Direct Newton iteration for .op point succeeded.

Date: Wed Nov 13 19:31:28 2024
Total elapsed time: 0.049 seconds.

tnom = 27
temp = 27
method = modified trap
totiter = 2085
traniter = 2082
tranpoints = 1042
accept = 1042
rejected = 0
matrix size = 14
fillins = 0
solver = Normal
Matrix Compiler1: 474 bytes object code size  0.3/0.3/[0.2]
Matrix Compiler2: 904 bytes object code size  0.3/0.3/[0.3]

