Circuit: * C:\users\martin\Desktop\Brain-Computer-Interface\Draft2.asc

WARNING: Less than two connections to node EARCLIP.  This node is used by R14.
Direct Newton iteration for .op point succeeded.

Date: Sun Nov 24 00:02:06 2024
Total elapsed time: 0.046 seconds.

tnom = 27
temp = 27
method = modified trap
totiter = 2091
traniter = 2088
tranpoints = 1045
accept = 1045
rejected = 0
matrix size = 24
fillins = 12
solver = Normal
Matrix Compiler1: 1.76 KB object code size  0.3/0.3/[0.1]
Matrix Compiler2: 2.11 KB object code size  0.2/0.3/[0.2]

