Circuit: * C:\users\martin\Desktop\Brain-Computer-Interface\Draft3.asc

.OP point found by inspection.

Date: Fri Nov 29 16:59:01 2024
Total elapsed time: 2.217 seconds.

tnom = 27
temp = 27
method = modified trap
totiter = 2389042
traniter = 2389042
tranpoints = 1194522
accept = 832044
rejected = 362478
matrix size = 3
fillins = 0
solver = Normal
Matrix Compiler1:       5 opcodes  0.1/[0.1]/0.1
Matrix Compiler2: off  [0.1]/0.1/0.1

