Circuit: * C:\users\martin\Desktop\Brain-Computer-Interface\Draft2.asc

.OP point found by inspection.

Date: Mon Dec 02 14:47:14 2024
Total elapsed time: 0.904 seconds.

tnom = 27
temp = 27
method = modified trap
totiter = 123300
traniter = 123300
tranpoints = 61651
accept = 57082
rejected = 4569
matrix size = 6
fillins = 0
solver = Normal
Matrix Compiler1: 200 bytes object code size  0.1/0.1/[0.1]
Matrix Compiler2: 394 bytes object code size  0.1/0.1/[0.1]

